tests/fuzzer/corpus_json/24_columnar_21_random_002.json
{
  "version": "1.0",
  "type": "input",
  "is_batch": false,
  "attributes": {
    "node": [
      "id",
      "u_rated"
    ],
    "source": [
      "id",
      "node",
      "status",
      "u_ref",
      "u_ref_angle",
      "sk",
      "rx_ratio",
      "z01_ratio"
    ],
    "line": [
      "id",
      "from_node",
      "to_node",
      "from_status",
      "to_status",
      "r1",
      "x1",
      "c1",
      "tan1",
      "r0",
      "x0",
      "c0",
      "tan0",
      "i_n"
    ],
    "sym_load": [
      "id",
      "node",
      "status",
      "type",
      "p_specified",
      "q_specified"
    ],
    "shunt": [
      "id",
      "node",
      "status",
      "g1",
      "b1",
      "g0",
      "b0"
    ]
  },
  "data": {
    "node": [
      [
        0,
        230.0
      ],
      [
        1,
        230.0
      ],
      [
        2,
        230.0
      ],
      [
        3,
        230.0
      ],
      [
        4,
        230.0
      ],
      [
        5,
        230.0
      ],
      [
        6,
        230.0
      ],
      [
        7,
        230.0
      ],
      [
        8,
        230.0
      ],
      [
        9,
        230.0
      ],
      [
        10,
        230.0
      ],
      [
        11,
        230.0
      ],
      [
        12,
        230.0
      ],
      [
        13,
        230.0
      ],
      [
        14,
        230.0
      ]
    ],
    "source": [
      [
        15,
        0,
        1,
        0.9722114947967215,
        0.0,
        91675628.92633308,
        0.08454180783022186,
        1.0
      ]
    ],
    "line": [
      [
        16,
        0,
        1,
        1,
        1,
        4.269171927427368,
        1.2579164879748284,
        2.122188106686006e-07,
        0.0,
        0.3,
        0.3,
        1e-09,
        0.0,
        45.37709731900671
      ],
      [
        17,
        1,
        2,
        1,
        1,
        3.406230924963313,
        4.998593979726346,
        6.384713381046937e-07,
        0.0,
        0.3,
        0.3,
        1e-09,
        0.0,
        805.6327487214055
      ],
      [
        18,
        2,
        3,
        1,
        1,
        4.301220513687266,
        2.5453372653348545,
        3.7206029552353203e-07,
        0.0,
        0.3,
        0.3,
        1e-09,
        0.0,
        936.3545683056536
      ],
      [
        19,
        3,
        4,
        1,
        1,
        2.5103364612251795,
        4.506038987484735,
        8.710329683679703e-07,
        0.0,
        0.3,
        0.3,
        1e-09,
        0.0,
        370.3742835688957
      ],
      [
        20,
        4,
        5,
        1,
        1,
        4.659232769849342,
        4.538750550896485,
        4.2361096957169063e-07,
        0.0,
        0.3,
        0.3,
        1e-09,
        0.0,
        885.2239208705369
      ],
      [
        21,
        5,
        6,
        1,
        1,
        0.8224421203326565,
        0.8871821774588301,
        2.3060267436398618e-07,
        0.0,
        0.3,
        0.3,
        1e-09,
        0.0,
        184.95278106549003
      ],
      [
        22,
        6,
        7,
        1,
        1,
        0.8679437688252845,
        2.5508334677749813,
        3.596914037964013e-07,
        0.0,
        0.3,
        0.3,
        1e-09,
        0.0,
        518.6000264267243
      ],
      [
        23,
        7,
        8,
        1,
        1,
        2.7994515814573875,
        4.975888352601659,
        4.4563761202067076e-07,
        0.0,
        0.3,
        0.3,
        1e-09,
        0.0,
        420.52428444517903
      ],
      [
        24,
        8,
        9,
        1,
        1,
        2.626828585065664,
        4.54239039729854,
        3.6425552360525445e-07,
        0.0,
        0.3,
        0.3,
        1e-09,
        0.0,
        597.5507035870038
      ],
      [
        25,
        9,
        10,
        1,
        1,
        1.8094319098061535,
        4.2948340982906865,
        4.457689610211897e-07,
        0.0,
        0.3,
        0.3,
        1e-09,
        0.0,
        955.383788767934
      ],
      [
        26,
        10,
        11,
        1,
        1,
        1.999317471502382,
        3.692951107822608,
        6.549109781559981e-07,
        0.0,
        0.3,
        0.3,
        1e-09,
        0.0,
        257.4027500682605
      ],
      [
        27,
        11,
        12,
        1,
        1,
        1.3955112146151087,
        2.4903271533862146,
        5.153922053540086e-07,
        0.0,
        0.3,
        0.3,
        1e-09,
        0.0,
        798.2540822057796
      ],
      [
        28,
        12,
        13,
        1,
        1,
        3.308428000019897,
        2.2734439335651913,
        9.031766538397383e-07,
        0.0,
        0.3,
        0.3,
        1e-09,
        0.0,
        357.26705843231093
      ],
      [
        29,
        13,
        14,
        1,
        1,
        3.6294260218862604,
        2.787914265832787,
        4.565511158601086e-07,
        0.0,
        0.3,
        0.3,
        1e-09,
        0.0,
        662.2964487939543
      ]
    ],
    "sym_load": [
      [
        30,
        7,
        1,
        1,
        91472.3423112316,
        4124.116127352094
      ],
      [
        31,
        8,
        1,
        2,
        1471.3386467313685,
        2316.1643129504773
      ],
      [
        32,
        9,
        1,
        2,
        -58436.30509241455,
        237.8331671056494
      ],
      [
        33,
        12,
        1,
        1,
        45189.85749545964,
        8153.072419026415
      ],
      [
        34,
        13,
        1,
        2,
        -78768.61533707546,
        1488.2991690799481
      ],
      [
        35,
        14,
        1,
        2,
        -54676.69415104739,
        7509.823428964755
      ]
    ],
    "shunt": [
      [
        36,
        0,
        1,
        5.2236266535893e-05,
        7.078860143697442e-05,
        0.0001,
        0.0001
      ]
    ]
  }
}
